Version 4
SHEET 1 880 680
SYMBOL voltage 144 144 R0
WINDOW 123 0 0 Left 2
WINDOW 39 0 0 Left 2
SYMATTR InstName V1
SYMATTR Value SINE(0 10 50)
SYMBOL diode 352 112 R0
SYMATTR InstName D1
