Version 4
SHEET 1 1440 1204
WIRE 432 -320 432 -528
WIRE 432 -304 432 -320
WIRE 224 -96 -96 -96
WIRE 432 -96 432 -240
WIRE 432 -96 224 -96
WIRE 592 -96 432 -96
WIRE 800 -96 592 -96
WIRE 1056 -96 800 -96
WIRE 704 0 480 0
WIRE 800 32 800 -96
WIRE 224 64 224 -96
WIRE 592 64 592 -96
WIRE 352 80 272 80
WIRE 480 80 480 0
WIRE 480 80 352 80
WIRE 544 80 480 80
WIRE 704 112 704 0
WIRE 752 112 704 112
WIRE -96 128 -96 -96
WIRE 1056 144 1056 -96
WIRE 224 176 224 160
WIRE 352 176 352 80
WIRE 352 176 224 176
WIRE 800 192 800 128
WIRE 992 192 800 192
WIRE 224 288 224 176
WIRE 336 304 272 304
WIRE 528 304 336 304
WIRE 592 304 592 160
WIRE 592 304 576 304
WIRE 528 320 528 304
WIRE 800 368 800 192
WIRE 224 400 224 384
WIRE 336 400 336 304
WIRE 336 400 224 400
WIRE 576 448 576 400
WIRE 752 448 576 448
WIRE 224 480 224 400
WIRE 352 480 224 480
WIRE 224 528 224 480
WIRE 576 528 576 448
WIRE 288 576 272 576
WIRE 352 576 352 480
WIRE 352 576 288 576
WIRE 512 576 352 576
WIRE 352 672 352 624
WIRE 352 704 352 672
WIRE 352 752 320 752
WIRE 576 768 576 624
WIRE 528 784 496 784
WIRE -96 848 -96 208
WIRE 48 848 -96 848
WIRE 320 880 320 752
WIRE 416 880 416 784
WIRE 416 880 400 880
WIRE 1056 896 1056 240
WIRE 1056 896 1040 896
WIRE -96 928 -96 848
WIRE -96 928 -112 928
WIRE 224 928 224 624
WIRE 992 976 880 976
WIRE 48 1008 48 848
WIRE 48 1008 -64 1008
WIRE 128 1008 48 1008
WIRE 176 1008 128 1008
WIRE 128 1088 128 1008
WIRE 880 1088 880 976
WIRE 880 1088 128 1088
WIRE -112 1136 -112 1024
WIRE 224 1136 224 1024
WIRE 224 1136 -112 1136
WIRE 432 1136 224 1136
WIRE 576 1136 576 864
WIRE 576 1136 432 1136
WIRE 800 1136 800 464
WIRE 800 1136 576 1136
WIRE 1040 1136 1040 992
WIRE 1040 1136 800 1136
WIRE 432 1184 432 1136
FLAG 432 -528 0
FLAG 432 1184 0
FLAG 352 624 0
SYMBOL nmos 272 160 R180
SYMATTR InstName M6b
SYMBOL nmos 272 384 R180
SYMATTR InstName M7b
SYMBOL nmos 528 400 M180
SYMATTR InstName M6
SYMBOL nmos 544 160 M180
SYMATTR InstName M7
SYMBOL nmos 752 32 R0
WINDOW 3 53 77 Left 2
SYMATTR InstName M5
SYMBOL pmos -64 928 M0
SYMATTR InstName M8
SYMBOL pmos 528 864 M180
SYMATTR InstName M1
SYMBOL pmos 752 368 R0
SYMATTR InstName M2
SYMATTR Value NMOS
SYMBOL pmos 992 896 R0
SYMATTR InstName M10
SYMBOL nmos 176 928 R0
SYMATTR InstName M9
SYMATTR Value PMOS
SYMBOL voltage 432 -224 R180
WINDOW 0 24 96 Left 2
WINDOW 3 24 16 Left 2
WINDOW 123 0 0 Left 2
WINDOW 39 0 0 Left 2
SYMATTR InstName V1
SYMATTR Value 5V
SYMBOL npn 288 528 M0
SYMATTR InstName Q2b
SYMBOL npn 512 528 R0
WINDOW 3 56 62 Left 2
SYMATTR InstName Q2
SYMBOL npn 992 144 R0
WINDOW 3 50 65 Left 2
SYMATTR InstName Q4
SYMBOL res -112 112 R0
SYMATTR InstName R1
SYMATTR Value 75K
SYMBOL res 512 768 R90
WINDOW 0 0 56 VBottom 2
WINDOW 3 32 56 VTop 2
SYMATTR InstName R2
SYMATTR Value 50
SYMBOL voltage 352 768 R180
WINDOW 0 24 96 Left 2
WINDOW 3 24 16 Left 2
WINDOW 123 0 0 Left 2
WINDOW 39 0 0 Left 2
SYMATTR InstName VBIAS
SYMATTR Value 0.5
SYMBOL voltage 416 880 R90
WINDOW 0 -32 56 VBottom 2
WINDOW 3 32 56 VTop 2
WINDOW 123 0 0 Left 2
WINDOW 39 0 0 Left 2
SYMATTR InstName V3
SYMATTR Value 20v
TEXT -864 0 Left 2 !.MODEL BJT_Q NPN(IS=10e-16 Bf=50)\n.MODEL MOS_M NMOS(L=1 W=16)\n.MODEL MOS_M PMOS(L=1 W=32)\n.op
